/*--------------------------------*- C++ -*----------------------------------*\
| =========                 |                                                 |
| \\      /  F ield         | foam-extend: Open Source CFD                    |
|  \\    /   O peration     | Version:     4.1                                |
|   \\  /    A nd           | Web:         http://www.foam-extend.org         |
|    \\/     M anipulation  |                                                 |
\*---------------------------------------------------------------------------*/
FoamFile
{
    version     2.0;
    format      ascii;
    class       dictionary;
    object      blockMeshDict;
}
// * * * * * * * * * * * * * * * * * * * * * * * * * * * * * * * * * * * * * //

convertToMeters 0.01;

vertices
(
    (0 0 0)
    (15 0 0)
    (80 0 0)
    (0 -10.16 0)
    (15 -10.16 0)
    (80 -10.16 0)
    (15 -11.43 0)
    (80 -11.43 0)
    (0 0 0.025)
    (15 0 0.025)
    (80 0 0.025)
    (0 -10.16 0.025)
    (15 -10.16 0.025)
    (80 -10.16 0.025)
    (15 -11.43 0.025)
    (80 -11.43 0.025)
);

blocks
(
    hex (3 4 1 0 11 12 9 8) (40 50 1) simpleGrading (0.5 1 1)
    hex (4 5 2 1 12 13 10 9) (100 50 1) simpleGrading (10 1 1)
    hex (6 7 5 4 14 15 13 12) (100 5 1) simpleGrading (10 1 1)
);

edges
(
);

patches
(
    patch inlet
    (
        (3 0 8 11)
    )
    patch outlet
    (
        (2 5 13 10)
        (5 7 15 13)

    )
    wall upperWall
    (
        (0 1 9 8)
        (1 2 10 9)
    )
    wall lowerWall
    (
        (3 4 12 11)
        (4 6 14 12)
        (6 7 15 14)
    )
    empty frontAndBack
    (
        (0 1 4 3)
        (1 2 5 4)
        (4 5 7 6)
        (8 11 12 9)
        (9 12 13 10)
        (12 14 15 13)
    )
);

mergePatchPairs
(
);


// ************************************************************************* //
