/*--------------------------------*- C++ -*----------------------------------*\
| =========                 |                                                 |
| \\      /  F ield         | foam-extend: Open Source CFD                    |
|  \\    /   O peration     | Version:     5.0                                |
|   \\  /    A nd           | Web:         http://www.foam-extend.org         |
|    \\/     M anipulation  |                                                 |
\*---------------------------------------------------------------------------*/
FoamFile
{
    version     2.0;
    format      ascii;
    class       polyBoundaryMesh;
    location    "constant/polyMesh";
    object      boundary;
}
// * * * * * * * * * * * * * * * * * * * * * * * * * * * * * * * * * * * * * //

5
(
    inlet
    {
        type            patch;
        nFaces          20;
        startFace       2320;
    }
    outlet
    {
        type            patch;
        nFaces          40;
        startFace       2340;
    }
    upperWall
    {
        type            wall;
        nFaces          40;
        startFace       2380;
        closedSolidBodyMotion false;
    }
    lowerWall
    {
        type            wall;
        nFaces          60;
        startFace       2420;
        closedSolidBodyMotion false;
    }
    frontAndBack
    {
        type            empty;
        nFaces          2400;
        startFace       2480;
    }
)


// ************************************************************************* //
